Circuit: * C:\Users\gagan\OneDrive\Desktop\Voltage_Regulator\ltspice\line regulation\10v.asc

Warning: Multiple definitions of model "2scr375p" Type: BJT
Warning: Multiple definitions of model "bc857b" Type: BJT
Warning: Multiple definitions of model "bc847c" Type: BJT
Warning: Multiple definitions of model "bc847b" Type: BJT
Direct Newton iteration for .op point succeeded.

Date: Tue Nov 14 23:18:39 2023
Total elapsed time: 0.093 seconds.

tnom = 27
temp = 27
method = modified trap
totiter = 556
traniter = 530
tranpoints = 266
accept = 265
rejected = 1
matrix size = 41
fillins = 54
solver = Normal
Avg thread counts: 5.4/7.3/7.3/5.4
Matrix Compiler1: 4.71 KB object code size  1.1/0.8/[0.5]
Matrix Compiler2: 4.31 KB object code size  0.5/0.7/[0.4]

