Circuit: * C:\Users\gagan\OneDrive\Desktop\Voltage_Regulator\ltspice\line regulation\Draft1.asc

Direct Newton iteration for .op point succeeded.

Date: Wed Nov 15 15:41:48 2023
Total elapsed time: 0.052 seconds.

tnom = 27
temp = 27
method = modified trap
totiter = 61
traniter = 50
tranpoints = 26
accept = 26
rejected = 0
matrix size = 39
fillins = 33
solver = Normal
Avg thread counts: 8.0/8.0/8.0/8.0
Matrix Compiler1: 3.30 KB object code size
Matrix Compiler2: 3.72 KB object code size
