Circuit: * C:\Users\gagan\OneDrive\Desktop\Voltage_Regulator\ltspice\current boosting\base.asc

Warning: Multiple definitions of model "2scr375p" Type: BJT
Warning: Multiple definitions of model "bc857b" Type: BJT
Warning: Multiple definitions of model "bc847c" Type: BJT
Warning: Multiple definitions of model "bc847b" Type: BJT
Direct Newton iteration failed to find .op point.  (Use ".option noopiter" to skip.)
Starting Gmin stepping
Gmin = 10
Gmin = 1.07374
Gmin = 0.115292
Gmin = 0.0123794
Gmin = 0.00132923
Gmin = 0.000142725
Gmin = 1.5325e-05
Gmin = 1.6455e-06
Gmin = 1.76685e-07
Gmin = 1.89714e-08
Gmin = 2.03704e-09
Gmin = 2.18725e-10
Gmin = 2.34854e-11
Gmin = 2.52173e-12
Gmin = 2.70769e-13
Gmin = 0
Gmin stepping succeeded in finding the operating point.


Date: Sun Nov 19 01:40:09 2023
Total elapsed time: 0.234 seconds.

tnom = 27
temp = 27
method = modified trap
totiter = 1210
traniter = 520
tranpoints = 261
accept = 261
rejected = 0
matrix size = 50
fillins = 82
solver = Normal
Avg thread counts: 5.5/7.4/7.4/5.5
Matrix Compiler1: 7.00 KB object code size  3.4/2.4/[1.2]
Matrix Compiler2: 5.61 KB object code size  1.2/1.4/[0.6]

