Circuit: * C:\Users\gagan\OneDrive\Desktop\Voltage_Regulator\ltspice\base\base.asc

Warning: Multiple definitions of model "2scr375p" Type: BJT
Warning: Multiple definitions of model "bc857b" Type: BJT
Warning: Multiple definitions of model "bc847c" Type: BJT
Warning: Multiple definitions of model "bc847b" Type: BJT
Direct Newton iteration failed to find .op point.  (Use ".option noopiter" to skip.)
Starting Gmin stepping
Gmin = 10
Gmin = 1.07374
Gmin = 0.115292
Gmin = 0.0123794
Gmin = 0.00132923
Gmin = 0.000142725
Gmin = 1.5325e-05
Gmin = 1.6455e-06
Gmin = 1.76685e-07
Gmin = 1.89714e-08
Gmin = 2.03704e-09
Gmin = 2.18725e-10
Gmin = 2.34854e-11
Gmin = 2.52173e-12
Gmin = 2.70769e-13
Gmin = 0
Gmin stepping succeeded in finding the operating point.


Date: Wed Nov 15 17:40:52 2023
Total elapsed time: 0.233 seconds.

tnom = 27
temp = 27
method = modified trap
totiter = 1206
traniter = 530
tranpoints = 266
accept = 265
rejected = 1
matrix size = 46
fillins = 61
solver = Normal
Avg thread counts: 5.4/7.3/7.3/5.4
Matrix Compiler1: 5.39 KB object code size  2.4/1.9/[1.0]
Matrix Compiler2: 4.83 KB object code size  0.9/1.1/[0.5]

